data/pglib_opf_case24_ieee_rts__api.m
%%%%%%%%%%%%%%%%%%%%%%%%%%%%%%%%%%%%%%%%%%%%%%%%%%%%%%%%%%%%%%%%%%%%%%%%%%%
%%%%                                                                  %%%%%
%%%%    IEEE PES Power Grid Library - Optimal Power Flow - v18.08     %%%%%
%%%%          (https://github.com/power-grid-lib/pglib-opf)           %%%%%
%%%%             Benchmark Group - Active Power Increase              %%%%%
%%%%                        08 - August - 2018                        %%%%%
%%%%                                                                  %%%%%
%%%%%%%%%%%%%%%%%%%%%%%%%%%%%%%%%%%%%%%%%%%%%%%%%%%%%%%%%%%%%%%%%%%%%%%%%%%
function mpc = pglib_opf_case24_ieee_rts__api
mpc.version = '2';
mpc.baseMVA = 100.0;

%% area data
%	area	refbus
mpc.areas = [
	1	 1;
	2	 3;
	3	 8;
	4	 6;
];

%% bus data
%	bus_i	type	Pd	Qd	Gs	Bs	area	Vm	Va	baseKV	zone	Vmax	Vmin
mpc.bus = [
	1	 2	 207.30	 22.00	 0.0	 0.0	 1	    1.00000	    0.00000	 138.0	 1	    1.05000	    0.95000;
	2	 2	 186.19	 20.00	 0.0	 0.0	 1	    1.00000	    0.00000	 138.0	 1	    1.05000	    0.95000;
	3	 1	 345.50	 37.00	 0.0	 0.0	 1	    1.00000	    0.00000	 138.0	 1	    1.05000	    0.95000;
	4	 1	 142.04	 15.00	 0.0	 0.0	 1	    1.00000	    0.00000	 138.0	 1	    1.05000	    0.95000;
	5	 1	 136.28	 14.00	 0.0	 0.0	 1	    1.00000	    0.00000	 138.0	 1	    1.05000	    0.95000;
	6	 1	 261.05	 28.00	 0.0	 -100.0	 2	    1.00000	    0.00000	 138.0	 1	    1.05000	    0.95000;
	7	 2	 239.93	 25.00	 0.0	 0.0	 2	    1.00000	    0.00000	 138.0	 1	    1.05000	    0.95000;
	8	 1	 328.23	 35.00	 0.0	 0.0	 2	    1.00000	    0.00000	 138.0	 1	    1.05000	    0.95000;
	9	 1	 335.91	 36.00	 0.0	 0.0	 1	    1.00000	    0.00000	 138.0	 1	    1.05000	    0.95000;
	10	 1	 374.29	 40.00	 0.0	 0.0	 2	    1.00000	    0.00000	 138.0	 1	    1.05000	    0.95000;
	11	 1	 0.0	 0.0	 0.0	 0.0	 3	    1.00000	    0.00000	 230.0	 1	    1.05000	    0.95000;
	12	 1	 0.0	 0.0	 0.0	 0.0	 3	    1.00000	    0.00000	 230.0	 1	    1.05000	    0.95000;
	13	 3	 508.66	 54.00	 0.0	 0.0	 3	    1.00000	    0.00000	 230.0	 1	    1.05000	    0.95000;
	14	 2	 372.37	 39.00	 0.0	 0.0	 3	    1.00000	    0.00000	 230.0	 1	    1.05000	    0.95000;
	15	 2	 608.47	 64.00	 0.0	 0.0	 4	    1.00000	    0.00000	 230.0	 1	    1.05000	    0.95000;
	16	 2	 191.95	 20.00	 0.0	 0.0	 4	    1.00000	    0.00000	 230.0	 1	    1.05000	    0.95000;
	17	 1	 0.0	 0.0	 0.0	 0.0	 4	    1.00000	    0.00000	 230.0	 1	    1.05000	    0.95000;
	18	 2	 639.18	 68.00	 0.0	 0.0	 4	    1.00000	    0.00000	 230.0	 1	    1.05000	    0.95000;
	19	 1	 347.42	 37.00	 0.0	 0.0	 3	    1.00000	    0.00000	 230.0	 1	    1.05000	    0.95000;
	20	 1	 245.69	 26.00	 0.0	 0.0	 3	    1.00000	    0.00000	 230.0	 1	    1.05000	    0.95000;
	21	 2	 0.0	 0.0	 0.0	 0.0	 4	    1.00000	    0.00000	 230.0	 1	    1.05000	    0.95000;
	22	 2	 0.0	 0.0	 0.0	 0.0	 4	    1.00000	    0.00000	 230.0	 1	    1.05000	    0.95000;
	23	 2	 0.0	 0.0	 0.0	 0.0	 3	    1.00000	    0.00000	 230.0	 1	    1.05000	    0.95000;
	24	 1	 0.0	 0.0	 0.0	 0.0	 4	    1.00000	    0.00000	 230.0	 1	    1.05000	    0.95000;
];

%% generator data
%	bus	Pg	Qg	Qmax	Qmin	Vg	mBase	status	Pmax	Pmin	Pc1	Pc2	Qc1min	Qc1max	Qc2min	Qc2max	ramp_agc	ramp_10	ramp_30	ramp_q	apf
mpc.gen = [
	1	 43.5	 0.0	 40.0	 -40.0	 1.035	 100.0	 1	 79	 8.0	 0.0	 0.0	 0.0	 0.0	 0.0	 0.0	 0.0	 0.0	 0.0	 0.0	 0.0; % PEL
	1	 109.5	 0.0	 106.0	 -106.0	 1.035	 100.0	 1	 211	 8.0	 0.0	 0.0	 0.0	 0.0	 0.0	 0.0	 0.0	 0.0	 0.0	 0.0	 0.0; % PEL
	1	 41.3	 0.0	 38.0	 -38.0	 1.035	 100.0	 1	 75	 7.6	 0.0	 0.0	 0.0	 0.0	 0.0	 0.0	 0.0	 0.0	 0.0	 0.0	 0.0; % PEL
	1	 42.8	 0.0	 39.0	 -39.0	 1.035	 100.0	 1	 78	 7.6	 0.0	 0.0	 0.0	 0.0	 0.0	 0.0	 0.0	 0.0	 0.0	 0.0	 0.0; % NG
	2	 98.0	 0.0	 94.0	 -94.0	 1.035	 100.0	 1	 188	 8.0	 0.0	 0.0	 0.0	 0.0	 0.0	 0.0	 0.0	 0.0	 0.0	 0.0	 0.0; % NG
	2	 95.0	 0.0	 91.0	 -91.0	 1.035	 100.0	 1	 182	 8.0	 0.0	 0.0	 0.0	 0.0	 0.0	 0.0	 0.0	 0.0	 0.0	 0.0	 0.0; % PEL
	2	 91.8	 0.0	 88.0	 -88.0	 1.035	 100.0	 1	 176	 7.6	 0.0	 0.0	 0.0	 0.0	 0.0	 0.0	 0.0	 0.0	 0.0	 0.0	 0.0; % NG
	2	 335.3	 0.0	 332.0	 -332.0	 1.035	 100.0	 1	 663	 7.6	 0.0	 0.0	 0.0	 0.0	 0.0	 0.0	 0.0	 0.0	 0.0	 0.0	 0.0; % COW
	7	 221.25	 0.0	 215.0	 -215.0	 1.025	 100.0	 1	 430	 12.5	 0.0	 0.0	 0.0	 0.0	 0.0	 0.0	 0.0	 0.0	 0.0	 0.0	 0.0; % NG
	7	 82.75	 0.0	 77.0	 -77.0	 1.025	 100.0	 1	 153	 12.5	 0.0	 0.0	 0.0	 0.0	 0.0	 0.0	 0.0	 0.0	 0.0	 0.0	 0.0; % NG
	7	 303.75	 0.0	 298.0	 -298.0	 1.025	 100.0	 1	 595	 12.5	 0.0	 0.0	 0.0	 0.0	 0.0	 0.0	 0.0	 0.0	 0.0	 0.0	 0.0; % COW
	13	 289.25	 0.0	 272.0	 -272.0	 1.02	 100.0	 1	 544	 34.5	 0.0	 0.0	 0.0	 0.0	 0.0	 0.0	 0.0	 0.0	 0.0	 0.0	 0.0; % NG
	13	 288.25	 0.0	 271.0	 -271.0	 1.02	 100.0	 1	 542	 34.5	 0.0	 0.0	 0.0	 0.0	 0.0	 0.0	 0.0	 0.0	 0.0	 0.0	 0.0; % NG
	13	 321.75	 0.0	 305.0	 -305.0	 1.02	 100.0	 1	 609	 34.5	 0.0	 0.0	 0.0	 0.0	 0.0	 0.0	 0.0	 0.0	 0.0	 0.0	 0.0; % COW
	14	 0.0	 0.0	 250.8	 -250.8	 0.98	 100.0	 1	 0	 0.0	 0.0	 0.0	 0.0	 0.0	 0.0	 0.0	 0.0	 0.0	 0.0	 0.0	 0.0; % SYNC
	15	 80.1	 0.0	 94.8	 -94.8	 1.014	 100.0	 1	 159	 1.2	 0.0	 0.0	 0.0	 0.0	 0.0	 0.0	 0.0	 0.0	 0.0	 0.0	 0.0; % NG
	15	 103.6	 0.0	 103.0	 -103.0	 1.014	 100.0	 1	 206	 1.2	 0.0	 0.0	 0.0	 0.0	 0.0	 0.0	 0.0	 0.0	 0.0	 0.0	 0.0; % COW
	15	 98.1	 0.0	 98.0	 -98.0	 1.014	 100.0	 1	 195	 1.2	 0.0	 0.0	 0.0	 0.0	 0.0	 0.0	 0.0	 0.0	 0.0	 0.0	 0.0; % NG
	15	 81.6	 0.0	 94.8	 -94.8	 1.014	 100.0	 1	 162	 1.2	 0.0	 0.0	 0.0	 0.0	 0.0	 0.0	 0.0	 0.0	 0.0	 0.0	 0.0; % NG
	15	 70.1	 0.0	 94.8	 -94.8	 1.014	 100.0	 1	 139	 1.2	 0.0	 0.0	 0.0	 0.0	 0.0	 0.0	 0.0	 0.0	 0.0	 0.0	 0.0; % NG
	15	 116.575	 0.0	 103.0	 -103.0	 1.014	 100.0	 1	 206	 27.15	 0.0	 0.0	 0.0	 0.0	 0.0	 0.0	 0.0	 0.0	 0.0	 0.0	 0.0; % NG
	16	 307.575	 0.0	 294.0	 -294.0	 1.017	 100.0	 1	 588	 27.15	 0.0	 0.0	 0.0	 0.0	 0.0	 0.0	 0.0	 0.0	 0.0	 0.0	 0.0; % NG
	18	 216.0	 4.5	 200.0	 -191.0	 1.05	 100.0	 1	 382	 50.0	 0.0	 0.0	 0.0	 0.0	 0.0	 0.0	 0.0	 0.0	 0.0	 0.0	 0.0; % NG
	21	 362.5	 0.0	 338.0	 -338.0	 1.05	 100.0	 1	 675	 50.0	 0.0	 0.0	 0.0	 0.0	 0.0	 0.0	 0.0	 0.0	 0.0	 0.0	 0.0; % COW
	22	 113.5	 0.0	 111.0	 -111.0	 1.05	 100.0	 1	 222	 5.0	 0.0	 0.0	 0.0	 0.0	 0.0	 0.0	 0.0	 0.0	 0.0	 0.0	 0.0; % NG
	22	 94.5	 0.0	 92.0	 -92.0	 1.05	 100.0	 1	 184	 5.0	 0.0	 0.0	 0.0	 0.0	 0.0	 0.0	 0.0	 0.0	 0.0	 0.0	 0.0; % NG
	22	 75.5	 0.0	 73.0	 -73.0	 1.05	 100.0	 1	 146	 5.0	 0.0	 0.0	 0.0	 0.0	 0.0	 0.0	 0.0	 0.0	 0.0	 0.0	 0.0; % NG
	22	 119.0	 0.0	 117.0	 -117.0	 1.05	 100.0	 1	 233	 5.0	 0.0	 0.0	 0.0	 0.0	 0.0	 0.0	 0.0	 0.0	 0.0	 0.0	 0.0; % COW
	22	 110.5	 0.0	 108.0	 -108.0	 1.05	 100.0	 1	 216	 5.0	 0.0	 0.0	 0.0	 0.0	 0.0	 0.0	 0.0	 0.0	 0.0	 0.0	 0.0; % NG
	22	 44.0	 0.0	 42.0	 -42.0	 1.05	 100.0	 1	 83	 5.0	 0.0	 0.0	 0.0	 0.0	 0.0	 0.0	 0.0	 0.0	 0.0	 0.0	 0.0; % NG
	23	 224.075	 0.0	 211.0	 -211.0	 1.05	 100.0	 1	 421	 27.15	 0.0	 0.0	 0.0	 0.0	 0.0	 0.0	 0.0	 0.0	 0.0	 0.0	 0.0; % NG
	23	 159.575	 0.0	 146.0	 -146.0	 1.05	 100.0	 1	 292	 27.15	 0.0	 0.0	 0.0	 0.0	 0.0	 0.0	 0.0	 0.0	 0.0	 0.0	 0.0; % COW
	23	 226.0	 0.0	 191.0	 -191.0	 1.05	 100.0	 1	 382	 70.0	 0.0	 0.0	 0.0	 0.0	 0.0	 0.0	 0.0	 0.0	 0.0	 0.0	 0.0; % NG
];

%% generator cost data
%	2	startup	shutdown	n	c(n-1)	...	c0
mpc.gencost = [
	2	 1500.0	 0.0	 3	   0.000000	 130.000000	 400.684900; % PEL
	2	 1500.0	 0.0	 3	   0.000000	 130.000000	 400.684900; % PEL
	2	 1500.0	 0.0	 3	   0.014142	  16.081100	 212.307600; % PEL
	2	 1500.0	 0.0	 3	   0.014142	  16.081100	 212.307600; % NG
	2	 1500.0	 0.0	 3	   0.000000	 130.000000	 400.684900; % NG
	2	 1500.0	 0.0	 3	   0.000000	 130.000000	 400.684900; % PEL
	2	 1500.0	 0.0	 3	   0.014142	  16.081100	 212.307600; % NG
	2	 1500.0	 0.0	 3	   0.014142	  16.081100	 212.307600; % COW
	2	 1500.0	 0.0	 3	   0.052672	  43.661500	 781.521000; % NG
	2	 1500.0	 0.0	 3	   0.052672	  43.661500	 781.521000; % NG
	2	 1500.0	 0.0	 3	   0.052672	  43.661500	 781.521000; % COW
	2	 1500.0	 0.0	 3	   0.007170	  48.580400	 832.757500; % NG
	2	 1500.0	 0.0	 3	   0.007170	  48.580400	 832.757500; % NG
	2	 1500.0	 0.0	 3	   0.007170	  48.580400	 832.757500; % COW
	2	 1500.0	 0.0	 3	   0.000000	   0.000000	   0.000000; % SYNC
	2	 1500.0	 0.0	 3	   0.328412	  56.564000	  86.385200; % NG
	2	 1500.0	 0.0	 3	   0.328412	  56.564000	  86.385200; % COW
	2	 1500.0	 0.0	 3	   0.328412	  56.564000	  86.385200; % NG
	2	 1500.0	 0.0	 3	   0.328412	  56.564000	  86.385200; % NG
	2	 1500.0	 0.0	 3	   0.328412	  56.564000	  86.385200; % NG
	2	 1500.0	 0.0	 3	   0.008342	  12.388300	 382.239100; % NG
	2	 1500.0	 0.0	 3	   0.008342	  12.388300	 382.239100; % NG
	2	 1500.0	 0.0	 3	   0.000213	   4.423100	 395.374900; % NG
	2	 1500.0	 0.0	 3	   0.000213	   4.423100	 395.374900; % COW
	2	 1500.0	 0.0	 3	   0.000000	   0.001000	   0.001000; % NG
	2	 1500.0	 0.0	 3	   0.000000	   0.001000	   0.001000; % NG
	2	 1500.0	 0.0	 3	   0.000000	   0.001000	   0.001000; % NG
	2	 1500.0	 0.0	 3	   0.000000	   0.001000	   0.001000; % COW
	2	 1500.0	 0.0	 3	   0.000000	   0.001000	   0.001000; % NG
	2	 1500.0	 0.0	 3	   0.000000	   0.001000	   0.001000; % NG
	2	 1500.0	 0.0	 3	   0.008342	  12.388300	 382.239100; % NG
	2	 1500.0	 0.0	 3	   0.008342	  12.388300	 382.239100; % COW
	2	 1500.0	 0.0	 3	   0.004895	  11.849500	 665.109400; % NG
];

%% branch data
%	fbus	tbus	r	x	b	rateA	rateB	rateC	ratio	angle	status	angmin	angmax
mpc.branch = [
	1	 2	 0.0026	 0.0139	 0.4611	 175.0	 193.0	 200.0	 0.0	 0.0	 1	 -30.0	 30.0;
	1	 3	 0.0546	 0.2112	 0.0572	 175.0	 208.0	 220.0	 0.0	 0.0	 1	 -30.0	 30.0;
	1	 5	 0.0218	 0.0845	 0.0229	 175.0	 208.0	 220.0	 0.0	 0.0	 1	 -30.0	 30.0;
	2	 4	 0.0328	 0.1267	 0.0343	 175.0	 208.0	 220.0	 0.0	 0.0	 1	 -30.0	 30.0;
	2	 6	 0.0497	 0.192	 0.052	 175.0	 208.0	 220.0	 0.0	 0.0	 1	 -30.0	 30.0;
	3	 9	 0.0308	 0.119	 0.0322	 175.0	 208.0	 220.0	 0.0	 0.0	 1	 -30.0	 30.0;
	3	 24	 0.0023	 0.0839	 0.0	 400.0	 510.0	 600.0	 1.03	 0.0	 1	 -30.0	 30.0;
	4	 9	 0.0268	 0.1037	 0.0281	 175.0	 208.0	 220.0	 0.0	 0.0	 1	 -30.0	 30.0;
	5	 10	 0.0228	 0.0883	 0.0239	 175.0	 208.0	 220.0	 0.0	 0.0	 1	 -30.0	 30.0;
	6	 10	 0.0139	 0.0605	 2.459	 175.0	 193.0	 200.0	 0.0	 0.0	 1	 -30.0	 30.0;
	7	 8	 0.0159	 0.0614	 0.0166	 175.0	 208.0	 220.0	 0.0	 0.0	 1	 -30.0	 30.0;
	8	 9	 0.0427	 0.1651	 0.0447	 175.0	 208.0	 220.0	 0.0	 0.0	 1	 -30.0	 30.0;
	8	 10	 0.0427	 0.1651	 0.0447	 175.0	 208.0	 220.0	 0.0	 0.0	 1	 -30.0	 30.0;
	9	 11	 0.0023	 0.0839	 0.0	 400.0	 510.0	 600.0	 1.03	 0.0	 1	 -30.0	 30.0;
	9	 12	 0.0023	 0.0839	 0.0	 400.0	 510.0	 600.0	 1.03	 0.0	 1	 -30.0	 30.0;
	10	 11	 0.0023	 0.0839	 0.0	 400.0	 510.0	 600.0	 1.02	 0.0	 1	 -30.0	 30.0;
	10	 12	 0.0023	 0.0839	 0.0	 400.0	 510.0	 600.0	 1.02	 0.0	 1	 -30.0	 30.0;
	11	 13	 0.0061	 0.0476	 0.0999	 500.0	 600.0	 625.0	 0.0	 0.0	 1	 -30.0	 30.0;
	11	 14	 0.0054	 0.0418	 0.0879	 500.0	 600.0	 625.0	 0.0	 0.0	 1	 -30.0	 30.0;
	12	 13	 0.0061	 0.0476	 0.0999	 500.0	 600.0	 625.0	 0.0	 0.0	 1	 -30.0	 30.0;
	12	 23	 0.0124	 0.0966	 0.203	 500.0	 600.0	 625.0	 0.0	 0.0	 1	 -30.0	 30.0;
	13	 23	 0.0111	 0.0865	 0.1818	 500.0	 600.0	 625.0	 0.0	 0.0	 1	 -30.0	 30.0;
	14	 16	 0.005	 0.0389	 0.0818	 500.0	 600.0	 625.0	 0.0	 0.0	 1	 -30.0	 30.0;
	15	 16	 0.0022	 0.0173	 0.0364	 500.0	 600.0	 625.0	 0.0	 0.0	 1	 -30.0	 30.0;
	15	 21	 0.0063	 0.049	 0.103	 500.0	 600.0	 625.0	 0.0	 0.0	 1	 -30.0	 30.0;
	15	 21	 0.0063	 0.049	 0.103	 500.0	 600.0	 625.0	 0.0	 0.0	 1	 -30.0	 30.0;
	15	 24	 0.0067	 0.0519	 0.1091	 500.0	 600.0	 625.0	 0.0	 0.0	 1	 -30.0	 30.0;
	16	 17	 0.0033	 0.0259	 0.0545	 500.0	 600.0	 625.0	 0.0	 0.0	 1	 -30.0	 30.0;
	16	 19	 0.003	 0.0231	 0.0485	 500.0	 600.0	 625.0	 0.0	 0.0	 1	 -30.0	 30.0;
	17	 18	 0.0018	 0.0144	 0.0303	 500.0	 600.0	 625.0	 0.0	 0.0	 1	 -30.0	 30.0;
	17	 22	 0.0135	 0.1053	 0.2212	 500.0	 600.0	 625.0	 0.0	 0.0	 1	 -30.0	 30.0;
	18	 21	 0.0033	 0.0259	 0.0545	 500.0	 600.0	 625.0	 0.0	 0.0	 1	 -30.0	 30.0;
	18	 21	 0.0033	 0.0259	 0.0545	 500.0	 600.0	 625.0	 0.0	 0.0	 1	 -30.0	 30.0;
	19	 20	 0.0051	 0.0396	 0.0833	 500.0	 600.0	 625.0	 0.0	 0.0	 1	 -30.0	 30.0;
	19	 20	 0.0051	 0.0396	 0.0833	 500.0	 600.0	 625.0	 0.0	 0.0	 1	 -30.0	 30.0;
	20	 23	 0.0028	 0.0216	 0.0455	 500.0	 600.0	 625.0	 0.0	 0.0	 1	 -30.0	 30.0;
	20	 23	 0.0028	 0.0216	 0.0455	 500.0	 600.0	 625.0	 0.0	 0.0	 1	 -30.0	 30.0;
	21	 22	 0.0087	 0.0678	 0.1424	 500.0	 600.0	 625.0	 0.0	 0.0	 1	 -30.0	 30.0;
];

%% bus location data
%column_names%  latitude  longitude
mpc.bus_location = [
41.35953108	-113.9587282
41.35624574	-113.9108087
41.31720175	-114.0116717
41.33780758	-113.965764
41.33164022	-113.9331631
41.32036553	-113.8648405
41.34585723	-113.8508694
41.32919294	-113.8982622
41.31286796	-113.9445953
41.31286796	-113.9445953
41.31286796	-113.9445953
41.31286796	-113.9445953
41.25904844	-113.8511479
41.26150621	-113.9136959
41.26882608	-113.9522863
41.24261203	-113.9295296
41.19566804	-113.9215355
41.15032885	-113.9118462
41.22114052	-113.9009849
41.21684919	-113.8608638
41.14955029	-113.8517929
41.18545155	-113.8138048
41.21560551	-113.8147686
41.31720175	-114.0116717
];

% INFO    : === Translation Options ===
% INFO    : Load Model:                  from file ./pglib_opf_case24_ieee_rts.m.api.sol
% INFO    : Gen Active Capacity Model:   stat
% INFO    : Gen Reactive Capacity Model: al50ag
% INFO    : Gen Active Cost Model:       stat
% INFO    : 
% INFO    : === Load Replacement Notes ===
% INFO    : Bus 1	: Pd=108.0, Qd=22.0 -> Pd=207.30, Qd=22.00
% INFO    : Bus 2	: Pd=97.0, Qd=20.0 -> Pd=186.19, Qd=20.00
% INFO    : Bus 3	: Pd=180.0, Qd=37.0 -> Pd=345.50, Qd=37.00
% INFO    : Bus 4	: Pd=74.0, Qd=15.0 -> Pd=142.04, Qd=15.00
% INFO    : Bus 5	: Pd=71.0, Qd=14.0 -> Pd=136.28, Qd=14.00
% INFO    : Bus 6	: Pd=136.0, Qd=28.0 -> Pd=261.05, Qd=28.00
% INFO    : Bus 7	: Pd=125.0, Qd=25.0 -> Pd=239.93, Qd=25.00
% INFO    : Bus 8	: Pd=171.0, Qd=35.0 -> Pd=328.23, Qd=35.00
% INFO    : Bus 9	: Pd=175.0, Qd=36.0 -> Pd=335.91, Qd=36.00
% INFO    : Bus 10	: Pd=195.0, Qd=40.0 -> Pd=374.29, Qd=40.00
% INFO    : Bus 13	: Pd=265.0, Qd=54.0 -> Pd=508.66, Qd=54.00
% INFO    : Bus 14	: Pd=194.0, Qd=39.0 -> Pd=372.37, Qd=39.00
% INFO    : Bus 15	: Pd=317.0, Qd=64.0 -> Pd=608.47, Qd=64.00
% INFO    : Bus 16	: Pd=100.0, Qd=20.0 -> Pd=191.95, Qd=20.00
% INFO    : Bus 18	: Pd=333.0, Qd=68.0 -> Pd=639.18, Qd=68.00
% INFO    : Bus 19	: Pd=181.0, Qd=37.0 -> Pd=347.42, Qd=37.00
% INFO    : Bus 20	: Pd=128.0, Qd=26.0 -> Pd=245.69, Qd=26.00
% INFO    : 
% INFO    : === Generator Setpoint Replacement Notes ===
% INFO    : Gen at bus 1	: Pg=18.0, Qg=5.0 -> Pg=73.0, Qg=1.0
% INFO    : Gen at bus 1	: Pg=18.0, Qg=5.0 -> Pg=73.0, Qg=1.0
% INFO    : Gen at bus 1	: Pg=45.6, Qg=2.5 -> Pg=72.0, Qg=1.0
% INFO    : Gen at bus 1	: Pg=45.6, Qg=2.5 -> Pg=72.0, Qg=1.0
% INFO    : Gen at bus 2	: Pg=18.0, Qg=5.0 -> Pg=157.0, Qg=31.0
% INFO    : Gen at bus 2	: Pg=18.0, Qg=5.0 -> Pg=157.0, Qg=31.0
% INFO    : Gen at bus 2	: Pg=45.6, Qg=2.5 -> Pg=156.0, Qg=31.0
% INFO    : Gen at bus 2	: Pg=45.6, Qg=2.5 -> Pg=156.0, Qg=31.0
% INFO    : Gen at bus 7	: Pg=62.5, Qg=30.0 -> Pg=126.0, Qg=42.0
% INFO    : Gen at bus 7	: Pg=62.5, Qg=30.0 -> Pg=126.0, Qg=42.0
% INFO    : Gen at bus 7	: Pg=62.5, Qg=30.0 -> Pg=126.0, Qg=42.0
% INFO    : Gen at bus 13	: Pg=133.0, Qg=40.0 -> Pg=410.0, Qg=105.0
% INFO    : Gen at bus 13	: Pg=133.0, Qg=40.0 -> Pg=410.0, Qg=105.0
% INFO    : Gen at bus 13	: Pg=133.0, Qg=40.0 -> Pg=410.0, Qg=105.0
% INFO    : Gen at bus 14	: Pg=0.0, Qg=75.0 -> Pg=0.0, Qg=209.0
% INFO    : Gen at bus 15	: Pg=7.2, Qg=3.0 -> Pg=132.0, Qg=79.0
% INFO    : Gen at bus 15	: Pg=7.2, Qg=3.0 -> Pg=132.0, Qg=79.0
% INFO    : Gen at bus 15	: Pg=7.2, Qg=3.0 -> Pg=132.0, Qg=79.0
% INFO    : Gen at bus 15	: Pg=7.2, Qg=3.0 -> Pg=132.0, Qg=79.0
% INFO    : Gen at bus 15	: Pg=7.2, Qg=3.0 -> Pg=132.0, Qg=79.0
% INFO    : Gen at bus 15	: Pg=104.65, Qg=15.0 -> Pg=184.0, Qg=79.0
% INFO    : Gen at bus 16	: Pg=104.65, Qg=15.0 -> Pg=521.0, Qg=-31.0
% INFO    : Gen at bus 18	: Pg=250.0, Qg=75.0 -> Pg=302.0, Qg=32.0
% INFO    : Gen at bus 21	: Pg=250.0, Qg=75.0 -> Pg=203.0, Qg=-118.0
% INFO    : Gen at bus 22	: Pg=30.0, Qg=3.0 -> Pg=68.0, Qg=-9.0
% INFO    : Gen at bus 22	: Pg=30.0, Qg=3.0 -> Pg=68.0, Qg=-9.0
% INFO    : Gen at bus 22	: Pg=30.0, Qg=3.0 -> Pg=68.0, Qg=-9.0
% INFO    : Gen at bus 22	: Pg=30.0, Qg=3.0 -> Pg=68.0, Qg=-9.0
% INFO    : Gen at bus 22	: Pg=30.0, Qg=3.0 -> Pg=68.0, Qg=-9.0
% INFO    : Gen at bus 22	: Pg=30.0, Qg=3.0 -> Pg=68.0, Qg=-9.0
% INFO    : Gen at bus 23	: Pg=104.65, Qg=15.0 -> Pg=237.0, Qg=15.0
% INFO    : Gen at bus 23	: Pg=104.65, Qg=15.0 -> Pg=237.0, Qg=15.0
% INFO    : Gen at bus 23	: Pg=245.0, Qg=62.5 -> Pg=323.0, Qg=15.0
% INFO    : 
% INFO    : === Generator Reactive Capacity Atleast Setpoint Value Notes ===
% INFO    : Gen at bus 1	: Qg 1.0, Qmin 0.0, Qmax 10.0 -> Qmin -1.2, Qmax 10.0
% INFO    : Gen at bus 1	: Qg 1.0, Qmin 0.0, Qmax 10.0 -> Qmin -1.2, Qmax 10.0
% INFO    : Gen at bus 2	: Qg 31.0, Qmin 0.0, Qmax 10.0 -> Qmin -37.2, Qmax 37.2
% INFO    : Gen at bus 2	: Qg 31.0, Qmin 0.0, Qmax 10.0 -> Qmin -37.2, Qmax 37.2
% INFO    : Gen at bus 2	: Qg 31.0, Qmin -25.0, Qmax 30.0 -> Qmin -37.2, Qmax 37.2
% INFO    : Gen at bus 2	: Qg 31.0, Qmin -25.0, Qmax 30.0 -> Qmin -37.2, Qmax 37.2
% INFO    : Gen at bus 7	: Qg 42.0, Qmin 0.0, Qmax 60.0 -> Qmin -50.4, Qmax 60.0
% INFO    : Gen at bus 7	: Qg 42.0, Qmin 0.0, Qmax 60.0 -> Qmin -50.4, Qmax 60.0
% INFO    : Gen at bus 7	: Qg 42.0, Qmin 0.0, Qmax 60.0 -> Qmin -50.4, Qmax 60.0
% INFO    : Gen at bus 13	: Qg 105.0, Qmin 0.0, Qmax 80.0 -> Qmin -126.0, Qmax 126.0
% INFO    : Gen at bus 13	: Qg 105.0, Qmin 0.0, Qmax 80.0 -> Qmin -126.0, Qmax 126.0
% INFO    : Gen at bus 13	: Qg 105.0, Qmin 0.0, Qmax 80.0 -> Qmin -126.0, Qmax 126.0
% INFO    : Gen at bus 14	: Qg 209.0, Qmin -50.0, Qmax 200.0 -> Qmin -250.8, Qmax 250.8
% INFO    : Gen at bus 15	: Qg 79.0, Qmin 0.0, Qmax 6.0 -> Qmin -94.8, Qmax 94.8
% INFO    : Gen at bus 15	: Qg 79.0, Qmin 0.0, Qmax 6.0 -> Qmin -94.8, Qmax 94.8
% INFO    : Gen at bus 15	: Qg 79.0, Qmin 0.0, Qmax 6.0 -> Qmin -94.8, Qmax 94.8
% INFO    : Gen at bus 15	: Qg 79.0, Qmin 0.0, Qmax 6.0 -> Qmin -94.8, Qmax 94.8
% INFO    : Gen at bus 15	: Qg 79.0, Qmin 0.0, Qmax 6.0 -> Qmin -94.8, Qmax 94.8
% INFO    : Gen at bus 15	: Qg 79.0, Qmin -50.0, Qmax 80.0 -> Qmin -94.8, Qmax 80.0
% INFO    : Gen at bus 21	: Qg -118.0, Qmin -50.0, Qmax 200.0 -> Qmin -141.6, Qmax 200.0
% INFO    : 
% INFO    : === Generator Classification Notes ===
% INFO    : PEL    4   -     6.70
% INFO    : SYNC   1   -     0.00
% INFO    : COW    7   -    23.79
% INFO    : NG     21  -    69.51
% INFO    : 
% INFO    : === Generator Active Capacity Stat Model Notes ===
% INFO    : Gen at bus 1 - PEL	: Pg=73.0, Pmax=20.0 -> Pmax=79   samples: 7
% INFO    : Gen at bus 1 - PEL	: Pg=73.0, Pmax=20.0 -> Pmax=211   samples: 1
% INFO    : Gen at bus 1 - PEL	: Pg=72.0, Pmax=76.0 -> Pmax=75   samples: 9
% INFO    : Gen at bus 1 - NG	: Pg=72.0, Pmax=76.0 -> Pmax=78   samples: 2
% INFO    : Gen at bus 2 - NG	: Pg=157.0, Pmax=20.0 -> Pmax=188   samples: 1
% WARNING : Failed to find a generator capacity within (157.0-785.0) after 100 samples, using percent increase model
% INFO    : Gen at bus 2 - PEL	: Pg=157.0, Pmax=20.0 -> Pmax=182   samples: 100
% INFO    : Gen at bus 2 - NG	: Pg=156.0, Pmax=76.0 -> Pmax=176   samples: 1
% INFO    : Gen at bus 2 - COW	: Pg=156.0, Pmax=76.0 -> Pmax=663   samples: 3
% INFO    : Gen at bus 7 - NG	: Pg=126.0, Pmax=100.0 -> Pmax=430   samples: 2
% INFO    : Gen at bus 7 - NG	: Pg=126.0, Pmax=100.0 -> Pmax=153   samples: 1
% INFO    : Gen at bus 7 - COW	: Pg=126.0, Pmax=100.0 -> Pmax=595   samples: 1
% INFO    : Gen at bus 13 - NG	: Pg=410.0, Pmax=197.0 -> Pmax=544   samples: 18
% INFO    : Gen at bus 13 - NG	: Pg=410.0, Pmax=197.0 -> Pmax=542   samples: 17
% INFO    : Gen at bus 13 - COW	: Pg=410.0, Pmax=197.0 -> Pmax=609   samples: 2
% INFO    : Gen at bus 14 - SYNC	: Pg=0.0, Pmax=0.0 -> Pmax=0   samples: 0
% INFO    : Gen at bus 15 - NG	: Pg=132.0, Pmax=12.0 -> Pmax=159   samples: 4
% INFO    : Gen at bus 15 - COW	: Pg=132.0, Pmax=12.0 -> Pmax=206   samples: 2
% INFO    : Gen at bus 15 - NG	: Pg=132.0, Pmax=12.0 -> Pmax=195   samples: 3
% INFO    : Gen at bus 15 - NG	: Pg=132.0, Pmax=12.0 -> Pmax=162   samples: 10
% INFO    : Gen at bus 15 - NG	: Pg=132.0, Pmax=12.0 -> Pmax=139   samples: 1
% INFO    : Gen at bus 15 - NG	: Pg=184.0, Pmax=155.0 -> Pmax=206   samples: 1
% WARNING : Failed to find a generator capacity within (521.0-2605.0) after 100 samples, using percent increase model
% INFO    : Gen at bus 16 - NG	: Pg=521.0, Pmax=155.0 -> Pmax=588   samples: 100
% INFO    : Gen at bus 18 - NG	: Pg=302.0, Pmax=400.0 -> Pmax=382   samples: 10
% INFO    : Gen at bus 21 - COW	: Pg=203.0, Pmax=400.0 -> Pmax=675   samples: 2
% INFO    : Gen at bus 22 - NG	: Pg=68.0, Pmax=50.0 -> Pmax=222   samples: 2
% INFO    : Gen at bus 22 - NG	: Pg=68.0, Pmax=50.0 -> Pmax=184   samples: 1
% INFO    : Gen at bus 22 - NG	: Pg=68.0, Pmax=50.0 -> Pmax=146   samples: 2
% INFO    : Gen at bus 22 - COW	: Pg=68.0, Pmax=50.0 -> Pmax=233   samples: 1
% INFO    : Gen at bus 22 - NG	: Pg=68.0, Pmax=50.0 -> Pmax=216   samples: 1
% INFO    : Gen at bus 22 - NG	: Pg=68.0, Pmax=50.0 -> Pmax=83   samples: 1
% INFO    : Gen at bus 23 - NG	: Pg=237.0, Pmax=155.0 -> Pmax=421   samples: 2
% INFO    : Gen at bus 23 - COW	: Pg=237.0, Pmax=155.0 -> Pmax=292   samples: 3
% INFO    : Gen at bus 23 - NG	: Pg=323.0, Pmax=350.0 -> Pmax=382   samples: 35
% INFO    : 
% INFO    : === Generator Active Capacity LB Model Notes ===
% INFO    : Gen at bus 1	: Pmin=16.0 -> Pmin=8.0 
% INFO    : Gen at bus 1	: Pmin=16.0 -> Pmin=8.0 
% INFO    : Gen at bus 1	: Pmin=15.2 -> Pmin=7.6 
% INFO    : Gen at bus 1	: Pmin=15.2 -> Pmin=7.6 
% INFO    : Gen at bus 2	: Pmin=16.0 -> Pmin=8.0 
% INFO    : Gen at bus 2	: Pmin=16.0 -> Pmin=8.0 
% INFO    : Gen at bus 2	: Pmin=15.2 -> Pmin=7.6 
% INFO    : Gen at bus 2	: Pmin=15.2 -> Pmin=7.6 
% INFO    : Gen at bus 7	: Pmin=25.0 -> Pmin=12.5 
% INFO    : Gen at bus 7	: Pmin=25.0 -> Pmin=12.5 
% INFO    : Gen at bus 7	: Pmin=25.0 -> Pmin=12.5 
% INFO    : Gen at bus 13	: Pmin=69.0 -> Pmin=34.5 
% INFO    : Gen at bus 13	: Pmin=69.0 -> Pmin=34.5 
% INFO    : Gen at bus 13	: Pmin=69.0 -> Pmin=34.5 
% INFO    : Gen at bus 15	: Pmin=2.4 -> Pmin=1.2 
% INFO    : Gen at bus 15	: Pmin=2.4 -> Pmin=1.2 
% INFO    : Gen at bus 15	: Pmin=2.4 -> Pmin=1.2 
% INFO    : Gen at bus 15	: Pmin=2.4 -> Pmin=1.2 
% INFO    : Gen at bus 15	: Pmin=2.4 -> Pmin=1.2 
% INFO    : Gen at bus 15	: Pmin=54.3 -> Pmin=27.15 
% INFO    : Gen at bus 16	: Pmin=54.3 -> Pmin=27.15 
% INFO    : Gen at bus 18	: Pmin=100.0 -> Pmin=50.0 
% INFO    : Gen at bus 21	: Pmin=100.0 -> Pmin=50.0 
% INFO    : Gen at bus 22	: Pmin=10.0 -> Pmin=5.0 
% INFO    : Gen at bus 22	: Pmin=10.0 -> Pmin=5.0 
% INFO    : Gen at bus 22	: Pmin=10.0 -> Pmin=5.0 
% INFO    : Gen at bus 22	: Pmin=10.0 -> Pmin=5.0 
% INFO    : Gen at bus 22	: Pmin=10.0 -> Pmin=5.0 
% INFO    : Gen at bus 22	: Pmin=10.0 -> Pmin=5.0 
% INFO    : Gen at bus 23	: Pmin=54.3 -> Pmin=27.15 
% INFO    : Gen at bus 23	: Pmin=54.3 -> Pmin=27.15 
% INFO    : Gen at bus 23	: Pmin=140.0 -> Pmin=70.0 
% INFO    : 
% INFO    : === Generator Reactive Capacity Atleast Max 50 Percent Active Model Notes ===
% INFO    : Gen at bus 1 - PEL	: Pmax 79.0, Qmin -1.2, Qmax 10.0 -> Qmin -40.0, Qmax 40.0
% INFO    : Gen at bus 1 - PEL	: Pmax 211.0, Qmin -1.2, Qmax 10.0 -> Qmin -106.0, Qmax 106.0
% INFO    : Gen at bus 1 - PEL	: Pmax 75.0, Qmin -25.0, Qmax 30.0 -> Qmin -38.0, Qmax 38.0
% INFO    : Gen at bus 1 - NG	: Pmax 78.0, Qmin -25.0, Qmax 30.0 -> Qmin -39.0, Qmax 39.0
% INFO    : Gen at bus 2 - NG	: Pmax 188.0, Qmin -37.2, Qmax 37.2 -> Qmin -94.0, Qmax 94.0
% INFO    : Gen at bus 2 - PEL	: Pmax 182.0, Qmin -37.2, Qmax 37.2 -> Qmin -91.0, Qmax 91.0
% INFO    : Gen at bus 2 - NG	: Pmax 176.0, Qmin -37.2, Qmax 37.2 -> Qmin -88.0, Qmax 88.0
% INFO    : Gen at bus 2 - COW	: Pmax 663.0, Qmin -37.2, Qmax 37.2 -> Qmin -332.0, Qmax 332.0
% INFO    : Gen at bus 7 - NG	: Pmax 430.0, Qmin -50.4, Qmax 60.0 -> Qmin -215.0, Qmax 215.0
% INFO    : Gen at bus 7 - NG	: Pmax 153.0, Qmin -50.4, Qmax 60.0 -> Qmin -77.0, Qmax 77.0
% INFO    : Gen at bus 7 - COW	: Pmax 595.0, Qmin -50.4, Qmax 60.0 -> Qmin -298.0, Qmax 298.0
% INFO    : Gen at bus 13 - NG	: Pmax 544.0, Qmin -126.0, Qmax 126.0 -> Qmin -272.0, Qmax 272.0
% INFO    : Gen at bus 13 - NG	: Pmax 542.0, Qmin -126.0, Qmax 126.0 -> Qmin -271.0, Qmax 271.0
% INFO    : Gen at bus 13 - COW	: Pmax 609.0, Qmin -126.0, Qmax 126.0 -> Qmin -305.0, Qmax 305.0
% INFO    : Gen at bus 15 - COW	: Pmax 206.0, Qmin -94.8, Qmax 94.8 -> Qmin -103.0, Qmax 103.0
% INFO    : Gen at bus 15 - NG	: Pmax 195.0, Qmin -94.8, Qmax 94.8 -> Qmin -98.0, Qmax 98.0
% INFO    : Gen at bus 15 - NG	: Pmax 206.0, Qmin -94.8, Qmax 80.0 -> Qmin -103.0, Qmax 103.0
% INFO    : Gen at bus 16 - NG	: Pmax 588.0, Qmin -50.0, Qmax 80.0 -> Qmin -294.0, Qmax 294.0
% INFO    : Gen at bus 18 - NG	: Pmax 382.0, Qmin -50.0, Qmax 200.0 -> Qmin -191.0, Qmax 200.0
% INFO    : Gen at bus 21 - COW	: Pmax 675.0, Qmin -141.6, Qmax 200.0 -> Qmin -338.0, Qmax 338.0
% INFO    : Gen at bus 22 - NG	: Pmax 222.0, Qmin -10.0, Qmax 16.0 -> Qmin -111.0, Qmax 111.0
% INFO    : Gen at bus 22 - NG	: Pmax 184.0, Qmin -10.0, Qmax 16.0 -> Qmin -92.0, Qmax 92.0
% INFO    : Gen at bus 22 - NG	: Pmax 146.0, Qmin -10.0, Qmax 16.0 -> Qmin -73.0, Qmax 73.0
% INFO    : Gen at bus 22 - COW	: Pmax 233.0, Qmin -10.0, Qmax 16.0 -> Qmin -117.0, Qmax 117.0
% INFO    : Gen at bus 22 - NG	: Pmax 216.0, Qmin -10.0, Qmax 16.0 -> Qmin -108.0, Qmax 108.0
% INFO    : Gen at bus 22 - NG	: Pmax 83.0, Qmin -10.0, Qmax 16.0 -> Qmin -42.0, Qmax 42.0
% INFO    : Gen at bus 23 - NG	: Pmax 421.0, Qmin -50.0, Qmax 80.0 -> Qmin -211.0, Qmax 211.0
% INFO    : Gen at bus 23 - COW	: Pmax 292.0, Qmin -50.0, Qmax 80.0 -> Qmin -146.0, Qmax 146.0
% INFO    : Gen at bus 23 - NG	: Pmax 382.0, Qmin -25.0, Qmax 150.0 -> Qmin -191.0, Qmax 191.0
% INFO    : 
% INFO    : === Generator Setpoint Replacement Notes ===
% INFO    : Gen at bus 1	: Pg=73.0, Qg=1.0 -> Pg=43.5, Qg=0.0
% INFO    : Gen at bus 1	: Pg=73.0, Qg=1.0 -> Pg=109.5, Qg=0.0
% INFO    : Gen at bus 1	: Pg=72.0, Qg=1.0 -> Pg=41.3, Qg=0.0
% INFO    : Gen at bus 1	: Pg=72.0, Qg=1.0 -> Pg=42.8, Qg=0.0
% INFO    : Gen at bus 2	: Pg=157.0, Qg=31.0 -> Pg=98.0, Qg=0.0
% INFO    : Gen at bus 2	: Pg=157.0, Qg=31.0 -> Pg=95.0, Qg=0.0
% INFO    : Gen at bus 2	: Pg=156.0, Qg=31.0 -> Pg=91.8, Qg=0.0
% INFO    : Gen at bus 2	: Pg=156.0, Qg=31.0 -> Pg=335.3, Qg=0.0
% INFO    : Gen at bus 7	: Pg=126.0, Qg=42.0 -> Pg=221.25, Qg=0.0
% INFO    : Gen at bus 7	: Pg=126.0, Qg=42.0 -> Pg=82.75, Qg=0.0
% INFO    : Gen at bus 7	: Pg=126.0, Qg=42.0 -> Pg=303.75, Qg=0.0
% INFO    : Gen at bus 13	: Pg=410.0, Qg=105.0 -> Pg=289.25, Qg=0.0
% INFO    : Gen at bus 13	: Pg=410.0, Qg=105.0 -> Pg=288.25, Qg=0.0
% INFO    : Gen at bus 13	: Pg=410.0, Qg=105.0 -> Pg=321.75, Qg=0.0
% INFO    : Gen at bus 14	: Pg=0.0, Qg=209.0 -> Pg=0.0, Qg=0.0
% INFO    : Gen at bus 15	: Pg=132.0, Qg=79.0 -> Pg=80.1, Qg=0.0
% INFO    : Gen at bus 15	: Pg=132.0, Qg=79.0 -> Pg=103.6, Qg=0.0
% INFO    : Gen at bus 15	: Pg=132.0, Qg=79.0 -> Pg=98.1, Qg=0.0
% INFO    : Gen at bus 15	: Pg=132.0, Qg=79.0 -> Pg=81.6, Qg=0.0
% INFO    : Gen at bus 15	: Pg=132.0, Qg=79.0 -> Pg=70.1, Qg=0.0
% INFO    : Gen at bus 15	: Pg=184.0, Qg=79.0 -> Pg=116.575, Qg=0.0
% INFO    : Gen at bus 16	: Pg=521.0, Qg=-31.0 -> Pg=307.575, Qg=0.0
% INFO    : Gen at bus 18	: Pg=302.0, Qg=32.0 -> Pg=216.0, Qg=4.5
% INFO    : Gen at bus 21	: Pg=203.0, Qg=-118.0 -> Pg=362.5, Qg=0.0
% INFO    : Gen at bus 22	: Pg=68.0, Qg=-9.0 -> Pg=113.5, Qg=0.0
% INFO    : Gen at bus 22	: Pg=68.0, Qg=-9.0 -> Pg=94.5, Qg=0.0
% INFO    : Gen at bus 22	: Pg=68.0, Qg=-9.0 -> Pg=75.5, Qg=0.0
% INFO    : Gen at bus 22	: Pg=68.0, Qg=-9.0 -> Pg=119.0, Qg=0.0
% INFO    : Gen at bus 22	: Pg=68.0, Qg=-9.0 -> Pg=110.5, Qg=0.0
% INFO    : Gen at bus 22	: Pg=68.0, Qg=-9.0 -> Pg=44.0, Qg=0.0
% INFO    : Gen at bus 23	: Pg=237.0, Qg=15.0 -> Pg=224.075, Qg=0.0
% INFO    : Gen at bus 23	: Pg=237.0, Qg=15.0 -> Pg=159.575, Qg=0.0
% INFO    : Gen at bus 23	: Pg=323.0, Qg=15.0 -> Pg=226.0, Qg=0.0
% INFO    : 
% INFO    : === Writing Matpower Case File Notes ===
